OptimalCapacitorPlacement-master/34 Bus/Network_data_34.m


% 34 BUS Sys
            %send recieve R  X (ohm)     line_num
line_data=[ 1	2	0.117	0.048	1
            2	3	0.10725	0.044	2
            3	4	0.16445	0.04565	3
            4	5	0.1495	0.0415	4
            5	6	0.1495	0.0415	5
            6	7	0.3144	0.054	6
            7	8	0.2096	0.036	7
            8	9	0.3144	0.054	8
            9	10	0.2096	0.036	9
            10	11	0.131	0.0225	10
            11	12	0.1048	0.018	11
            3	13	0.1572	0.027	12
            13	14	0.2096	0.036	13
            14	15	0.1048	0.018	14
            15	16	0.0524	0.009	15
            6	17	0.1794	0.0498	16
            17	18	0.16445	0.04565	17
            18	19	0.2079	0.0473	18
            19	20	0.189	0.043	19
            20	21	0.189	0.043	20
            21	22	0.262	0.045	21
            22	23	0.262	0.045	22
            23	24	0.3144	0.054	23
            24	25	0.2096	0.036	24
            25	26	0.131	0.0225	25
            26	27	0.1048	0.018	26
            7	28	0.1572	0.027	27
            28	29	0.1572	0.027	28
            29	30	0.1572	0.027	29
            10	31	0.1572	0.027	30
            31	32	0.2096	0.036	31
            32	33	0.1572	0.027	32
            33	34	0.1048	0.018	33];     
          
%              bus_number      P(kw)                     Q(kVAR)
  bus_data=[1	0	0
            2	230	142.5
            3	0	0
            4	230	142.5
            5	230	142.5
            6	0	0
            7	0	0
            8	230	142.5
            9	230	142.5
            10	0	0
            11	230	142.5
            12	137	84
            13	72	45
            14	72	45
            15	72	45
            16	13.5	7.5
            17	230	142.5
            18	230	142.5
            19	230	142.5
            20	230	142.5
            21	230	142.5
            22	230	142.5
            23	230	142.5
            24	230	142.5
            25	230	142.5
            26	230	142.5
            27	137	85
            28	75	48
            29	75	48
            30	75	48
            31	57	34.5
            32	57	34.5
            33	57	34.5
            34	57	34.5];                 
                  
              
              
              
              
              
              
              
              
              
              